20

C          1.20805       -0.39247        1.66249
C          0.01166       -1.21351        1.57663
C         -1.13781        1.58647        0.37986
C         -1.15756       -0.36381        1.57670
C          1.14994        1.58285        0.35959
C         -0.74690        1.02825        1.66286
C          1.86084       -0.59205        0.37968
C          0.70276        0.96795        1.58809
C         -0.00014       -2.05621        0.39240
C         -1.95541       -0.63539        0.39289
C          0.00014        2.05621       -0.39240
C          1.95541        0.63539       -0.39289
C          1.13781       -1.58647       -0.37986
C         -1.14994       -1.58285       -0.35959
C         -1.86084        0.59205       -0.37968
C         -0.01166        1.21351       -1.57663
C          1.15756        0.36381       -1.57670
C          0.74690       -1.02825       -1.66286
C         -0.70276       -0.96795       -1.58809
C         -1.20805        0.39247       -1.66249
