18

H          1.81297       -1.65424       -0.29113
C          1.05636       -0.95688        0.11682
H          1.20908       -0.96146        1.21459
C         -0.34497       -1.45428       -0.21748
H         -0.33449       -2.01019       -1.17517
H         -0.66185       -2.19133        0.54582
C         -1.35970       -0.32053       -0.30690
H         -1.42741        0.04677       -1.35043
H         -2.37057       -0.69677       -0.05843
C         -0.99039        0.83296        0.60880
H         -1.78555        1.60278        0.59272
H         -0.94797        0.47106        1.65555
C          0.34492        1.45449        0.21670
H          0.18343        2.29425       -0.48688
H          0.81280        1.90794        1.11218
C          1.29370        0.44430       -0.41766
H          1.16634        0.44327       -1.51869
H          2.34329        0.74787       -0.24041
